          0 :                    ;;; -*- mode: asm; mode: flyspell-prog; -*-
          0 :                            include "i8096.inc"
(1)       0 :                     ;; -*- mode: asm; mode: flyspell-prog; -*-
(1)       0 :                    ;;; i8096
(1)       0 :                            cpu     8096
(1)       0 :                    ;;; SFR
(1)       0 : =0                 ZERO:   equ     00H             ; zero register
(1)       0 : =18                SP:     equ     18H             ; stack pointer
(1)       0 : =8                 INT_MASK:       equ     08H     ; interrupt mask
(1)       0 : =9                 INT_PENDING:    equ     09H     ; interrupt pending
(1)       0 : =40                INT_EXTINT:        equ     1000000B ; enable EXTINT
(1)       0 :
(1)       0 :                    ;;; Reset origin
(1)       0 : =2080              ORG_RESET:      equ     2080H
(1)       0 :                    ;;; Vector
(1)       0 : =200E              VEC_EXTINT:     equ     200EH
(1)       0 : =2010              VEC_TRAP:       equ     2010H
          0 :
       1000 :                            org     1000H
       1000 : =1000              stack:  equ     $
       1000 :
         1C :                            org     1CH
         1C : =1C                EAX:    equ     $
         1C : =1C                AX:     equ     $
         1C :                    AL:     dsb     1
         1D :                    AH:     dsb     1
         1E :                            dsw     1
         20 : =20                EDX:    equ     $
         20 : =20                DX:     equ     $
         20 :                    DL:     dsb     1
         21 :                    DH:     dsb     1
         22 :                            dsw     1
         24 : =24                CDX:    equ     $
         24 : =24                CX:     equ     $
         24 :                    CL:     dsb     1
         25 :                    CH:     dsb     1
         26 :                            dsw     1
         28 :
       2080 :                            org     ORG_RESET
       2080 : FD                         nop
       2081 : FD                         nop
       2082 :                    init:
       2082 : A1 00 10 18                ld      SP, #stack
       2086 : B0 40 08                   ldb     INT_MASK, INT_EXTINT ; enable EXTINT
       2089 : FB                         ei                           ; for halt switch
       208A : 01 1C                      clr     AX
       208C : 02 1C                      not     AX
       208E : A1 BC 9A 20                ld      DX, #9ABCH
       2092 : FD                         nop
       2093 : FD                         nop
       2094 : FD                         nop
       2095 : FD                         nop
       2096 :
       2096 : 00 1C                      skip    AL
       2098 : 01 1C                      clr     AX
       209A : 02 1C                      not     AX
       209C : 03 1C                      neg     AX
       209E : 05 1C                      dec     AX
       20A0 : 06 1C                      ext     AX
       20A2 : 07 1C                      inc     AX
       20A4 : 08 0F 1C                   shr     AX,15
       20A7 : 09 0F 1C                   shl     AX,15
       20AA : 0A 0F 1C                   shra    AX,15
       20AD : 0C 0F 1C                   shrl    EAX,15
       20B0 : 0D 0F 1C                   shll    EAX,15
       20B3 : 0E 0F 1C                   shral   EAX,15
       20B6 : 0F 20 1C                   norml   EAX,DL
       20B9 :
       20B9 : 11 1C                      clrb    AL
       20BB : 12 1D                      notb    AH
       20BD : 13 20                      negb    DL
       20BF : 15 21                      decb    DH
       20C1 : 16 1C                      extb    AX
       20C3 : 17 20                      incb    DL
       20C5 : 18 07 21                   shrb    DH,7
       20C8 : 19 07 1C                   shlb    AL,7
       20CB : 1A 07 1D                   shrab   AH,7
       20CE :
       20CE : 28 04                      scall    scall_a
       20D0 :                    scall_e:
       20D0 : 28 00                      scall    scall_b
       20D2 :                    scall_b:
       20D2 : 28 02                      scall    scall_d
       20D4 :                    scall_a:
       20D4 : 2F FA                      scall    scall_e
       20D6 :                    scall_d:
       20D6 :
       20D6 : 30 00 0C                   jbc     ZERO, 0, jbc_a
       20D9 : B1 80 1D           jbc_b:  ldb     AH, #80H
       20DC : FD                         nop
       20DD : FD                         nop
       20DE : FD                         nop
       20DF : 3F 1D 06                   jbs     AH, 7, jbc_c
       20E2 : FD                         nop
       20E3 : FD                         nop
       20E4 : FD                         nop
       20E5 :                    jbc_a:
       20E5 : 37 00 F1                   jbc     ZERO, 7, jbc_b
       20E8 :                    jbc_c:
       20E8 :
       20E8 : 40 20 24 1C                and     AX, CX, DX
       20EC : 41 34 12 24 1C             and     AX, CX, #1234H
       20F1 : 42 20 24 1C                and     AX, CX, [DX]
       20F5 : 42 21 24 1C                and     AX, CX, [DX]+
       20F9 : 43 20 56 24 1C             and     AX, CX, 56H[DX]
       20FE : 43 21 9A 78 24 1C          and     AX, CX, 789AH[DX]
       2104 :
       2104 : 44 20 24 1C                add     AX, CX, DX
       2108 : 45 34 12 24 1C             add     AX, CX, #1234H
       210D : 46 20 24 1C                add     AX, CX, [DX]
       2111 : 46 21 24 1C                add     AX, CX, [DX]+
       2115 : 47 20 56 24 1C             add     AX, CX, 56H[DX]
       211A : 47 21 9A 78 24 1C          add     AX, CX, 789AH[DX]
       2120 :
       2120 : 48 20 24 1C                sub     AX, CX, DX
       2124 : 49 34 12 24 1C             sub     AX, CX, #1234H
       2129 : 4A 20 24 1C                sub     AX, CX, [DX]
       212D : 4A 21 24 1C                sub     AX, CX, [DX]+
       2131 : 4B 20 56 24 1C             sub     AX, CX, 56H[DX]
       2136 : 4B 21 9A 78 24 1C          sub     AX, CX, 789AH[DX]
       213C :
       213C : 4C 20 24 1C                mulu    AX, CX, DX
       2140 : 4D 34 12 24 1C             mulu    AX, CX, #1234H
       2145 : 4E 20 24 1C                mulu    AX, CX, [DX]
       2149 : 4E 21 24 1C                mulu    AX, CX, [DX]+
       214D : 4F 20 56 24 1C             mulu    AX, CX, 56H[DX]
       2152 : 4F 21 9A 78 24 1C          mulu    AX, CX, 789AH[DX]
       2158 :
       2158 : 50 20 24 1C                andb    AL, CL, DL
       215C : 51 34 24 1C                andb    AL, CL, #34H
       2160 : 52 20 24 1C                andb    AL, CL, [DX]
       2164 : 52 21 24 1C                andb    AL, CL, [DX]+
       2168 : 53 20 56 24 1C             andb    AL, CL, 56H[DX]
       216D : 53 21 9A 78 24 1C          andb    AL, CL, 789AH[DX]
       2173 :
       2173 : 54 20 24 1C                addb    AL, CL, DL
       2177 : 55 34 24 1C                addb    AL, CL, #34H
       217B : 56 20 24 1C                addb    AL, CL, [DX]
       217F : 56 21 24 1C                addb    AL, CL, [DX]+
       2183 : 57 20 56 24 1C             addb    AL, CL, 56H[DX]
       2188 : 57 21 9A 78 24 1C          addb    AL, CL, 789AH[DX]
       218E :
       218E : 58 20 24 1C                subb    AL, CL, DL
       2192 : 59 34 24 1C                subb    AL, CL, #34H
       2196 : 5A 20 24 1C                subb    AL, CL, [DX]
       219A : 5A 21 24 1C                subb    AL, CL, [DX]+
       219E : 5B 20 56 24 1C             subb    AL, CL, 56H[DX]
       21A3 : 5B 21 9A 78 24 1C          subb    AL, CL, 789AH[DX]
       21A9 :
       21A9 : 5C 20 24 1C                mulub   AL, CL, DL
       21AD : 5D 34 24 1C                mulub   AL, CL, #34H
       21B1 : 5E 20 24 1C                mulub   AL, CL, [DX]
       21B5 : 5E 21 24 1C                mulub   AL, CL, [DX]+
       21B9 : 5F 20 56 24 1C             mulub   AL, CL, 56H[DX]
       21BE : 5F 21 9A 78 24 1C          mulub   AL, CL, 789AH[DX]
       21C4 :
       21C4 : 60 20 1C                   and     AX, DX
       21C7 : 61 34 12 1C                and     AX, #1234H
       21CB : 62 20 1C                   and     AX, [DX]
       21CE : 62 21 1C                   and     AX, [DX]+
       21D1 : 63 20 56 1C                and     AX, 56H[DX]
       21D5 : 63 21 9A 78 1C             and     AX, 789AH[DX]
       21DA :
       21DA : 64 20 1C                   add     AX, DX
       21DD : 65 34 12 1C                add     AX, #1234H
       21E1 : 66 20 1C                   add     AX, [DX]
       21E4 : 66 21 1C                   add     AX, [DX]+
       21E7 : 67 20 56 1C                add     AX, 56H[DX]
       21EB : 67 21 9A 78 1C             add     AX, 789AH[DX]
       21F0 :
       21F0 : 68 20 1C                   sub     AX, DX
       21F3 : 69 34 12 1C                sub     AX, #1234H
       21F7 : 6A 20 1C                   sub     AX, [DX]
       21FA : 6A 21 1C                   sub     AX, [DX]+
       21FD : 6B 20 56 1C                sub     AX, 56H[DX]
       2201 : 6B 21 9A 78 1C             sub     AX, 789AH[DX]
       2206 :
       2206 : 6C 20 1C                   mulu    AX, DX
       2209 : 6D 34 12 1C                mulu    AX, #1234H
       220D : 6E 20 1C                   mulu    AX, [DX]
       2210 : 6E 21 1C                   mulu    AX, [DX]+
       2213 : 6F 20 56 1C                mulu    AX, 56H[DX]
       2217 : 6F 21 9A 78 1C             mulu    AX, 789AH[DX]
       221C :
       221C : 70 20 1D                   andb    AH, DL
       221F : 71 34 1D                   andb    AH, #34H
       2222 : 72 20 1D                   andb    AH, [DX]
       2225 : 72 21 1D                   andb    AH, [DX]+
       2228 : 73 20 56 1D                andb    AH, 56H[DX]
       222C : 73 21 9A 78 1D             andb    AH, 789AH[DX]
       2231 :
       2231 : 74 20 1D                   addb    AH, DL
       2234 : 75 34 1D                   addb    AH, #34H
       2237 : 76 20 1D                   addb    AH, [DX]
       223A : 76 21 1D                   addb    AH, [DX]+
       223D : 77 20 56 1D                addb    AH, 56H[DX]
       2241 : 77 21 9A 78 1D             addb    AH, 789AH[DX]
       2246 :
       2246 : 78 20 1D                   subb    AH, DL
       2249 : 79 34 1D                   subb    AH, #34H
       224C : 7A 20 1D                   subb    AH, [DX]
       224F : 7A 21 1D                   subb    AH, [DX]+
       2252 : 7B 20 56 1D                subb    AH, 56H[DX]
       2256 : 7B 21 9A 78 1D             subb    AH, 789AH[DX]
       225B :
       225B : 7C 20 1C                   mulub   AX, DL
       225E : 7D 34 1C                   mulub   AX, #34H
       2261 : 7E 20 1C                   mulub   AX, [DX]
       2264 : 7E 21 1C                   mulub   AX, [DX]+
       2267 : 7F 20 56 1C                mulub   AX, 56H[DX]
       226B : 7F 21 9A 78 1C             mulub   AX, 789AH[DX]
       2270 :
       2270 : 80 20 1C                   or      AX, DX
       2273 : 81 34 12 1C                or      AX, #1234H
       2277 : 82 20 1C                   or      AX, [DX]
       227A : 82 21 1C                   or      AX, [DX]+
       227D : 83 20 56 1C                or      AX, 56H[DX]
       2281 : 83 21 9A 78 1C             or      AX, 789AH[DX]
       2286 :
       2286 : 84 20 1C                   xor     AX, DX
       2289 : 85 34 12 1C                xor     AX, #1234H
       228D : 86 20 1C                   xor     AX, [DX]
       2290 : 86 21 1C                   xor     AX, [DX]+
       2293 : 87 20 56 1C                xor     AX, 56H[DX]
       2297 : 87 21 9A 78 1C             xor     AX, 789AH[DX]
       229C :
       229C : 88 20 1C                   cmp     AX, DX
       229F : 89 34 12 1C                cmp     AX, #1234H
       22A3 : 8A 20 1C                   cmp     AX, [DX]
       22A6 : 8A 21 1C                   cmp     AX, [DX]+
       22A9 : 8B 20 56 1C                cmp     AX, 56H[DX]
       22AD : 8B 21 9A 78 1C             cmp     AX, 789AH[DX]
       22B2 :
       22B2 : 8C 20 1C                   divu    EAX, DX
       22B5 : 8D 34 12 1C                divu    EAX, #1234H
       22B9 : 8E 20 1C                   divu    EAX, [DX]
       22BC : 8E 21 1C                   divu    EAX, [DX]+
       22BF : 8F 20 56 1C                divu    EAX, 56H[DX]
       22C3 : 8F 21 9A 78 1C             divu    EAX, 789AH[DX]
       22C8 :
       22C8 : 90 20 1D                   orb     AH, DL
       22CB : 91 34 1D                   orb     AH, #34H
       22CE : 92 20 1D                   orb     AH, [DX]
       22D1 : 92 21 1D                   orb     AH, [DX]+
       22D4 : 93 20 56 1D                orb     AH, 56H[DX]
       22D8 : 93 21 9A 78 1D             orb     AH, 789AH[DX]
       22DD :
       22DD : 94 20 1D                   xorb    AH, DL
       22E0 : 95 34 1D                   xorb    AH, #34H
       22E3 : 96 20 1D                   xorb    AH, [DX]
       22E6 : 96 21 1D                   xorb    AH, [DX]+
       22E9 : 97 20 56 1D                xorb    AH, 56H[DX]
       22ED : 97 21 9A 78 1D             xorb    AH, 789AH[DX]
       22F2 :
       22F2 : 98 20 1D                   cmpb    AH, DL
       22F5 : 99 34 1D                   cmpb    AH, #34H
       22F8 : 9A 20 1D                   cmpb    AH, [DX]
       22FB : 9A 21 1D                   cmpb    AH, [DX]+
       22FE : 9B 20 56 1D                cmpb    AH, 56H[DX]
       2302 : 9B 21 9A 78 1D             cmpb    AH, 789AH[DX]
       2307 :
       2307 : 9C 20 1C                   divub   AX, DL
       230A : 9D 34 1C                   divub   AX, #34H
       230D : 9E 20 1C                   divub   AX, [DX]
       2310 : 9E 21 1C                   divub   AX, [DX]+
       2313 : 9F 20 56 1C                divub   AX, 56H[DX]
       2317 : 9F 21 9A 78 1C             divub   AX, 789AH[DX]
       231C :
       231C : A0 20 1C                   ld      AX, DX
       231F : A1 34 12 1C                ld      AX, #1234H
       2323 : A2 20 1C                   ld      AX, [DX]
       2326 : A2 21 1C                   ld      AX, [DX]+
       2329 : A3 20 56 1C                ld      AX, 56H[DX]
       232D : A3 21 9A 78 1C             ld      AX, 789AH[DX]
       2332 :
       2332 : A4 20 1C                   addc    AX, DX
       2335 : A5 34 12 1C                addc    AX, #1234H
       2339 : A6 20 1C                   addc    AX, [DX]
       233C : A6 21 1C                   addc    AX, [DX]+
       233F : A7 20 56 1C                addc    AX, 56H[DX]
       2343 : A7 21 9A 78 1C             addc    AX, 789AH[DX]
       2348 :
       2348 : A8 20 1C                   subc    AX, DX
       234B : A9 34 12 1C                subc    AX, #1234H
       234F : AA 20 1C                   subc    AX, [DX]
       2352 : AA 21 1C                   subc    AX, [DX]+
       2355 : AB 20 56 1C                subc    AX, 56H[DX]
       2359 : AB 21 9A 78 1C             subc    AX, 789AH[DX]
       235E :
       235E : AC 20 1C                   ldbze   AX, DL
       2361 : AD 34 1C                   ldbze   AX, #34H
       2364 : AE 20 1C                   ldbze   AX, [DX]
       2367 : AE 21 1C                   ldbze   AX, [DX]+
       236A : AF 20 56 1C                ldbze   AX, 56H[DX]
       236E : AF 21 9A 78 1C             ldbze   AX, 789AH[DX]
       2373 :
       2373 : B0 20 1D                   ldb     AH, DL
       2376 : B1 34 1D                   ldb     AH, #34H
       2379 : B2 20 1D                   ldb     AH, [DX]
       237C : B2 21 1D                   ldb     AH, [DX]+
       237F : B3 20 56 1D                ldb     AH, 56H[DX]
       2383 : B3 21 9A 78 1D             ldb     AH, 789AH[DX]
       2388 :
       2388 : B4 20 1D                   addcb   AH, DL
       238B : B5 34 1D                   addcb   AH, #34H
       238E : B6 20 1D                   addcb   AH, [DX]
       2391 : B6 21 1D                   addcb   AH, [DX]+
       2394 : B7 20 56 1D                addcb   AH, 56H[DX]
       2398 : B7 21 9A 78 1D             addcb   AH, 789AH[DX]
       239D :
       239D : B8 20 1D                   subcb   AH, DL
       23A0 : B9 34 1D                   subcb   AH, #34H
       23A3 : BA 20 1D                   subcb   AH, [DX]
       23A6 : BA 21 1D                   subcb   AH, [DX]+
       23A9 : BB 20 56 1D                subcb   AH, 56H[DX]
       23AD : BB 21 9A 78 1D             subcb   AH, 789AH[DX]
       23B2 :
       23B2 : BC 20 1C                   ldbse   AX, DL
       23B5 : BD 34 1C                   ldbse   AX, #34H
       23B8 : BE 20 1C                   ldbse   AX, [DX]
       23BB : BE 21 1C                   ldbse   AX, [DX]+
       23BE : BF 20 56 1C                ldbse   AX, 56H[DX]
       23C2 : BF 21 9A 78 1C             ldbse   AX, 789AH[DX]
       23C7 :
       23C7 : C0 24 1C                   st      AX, CX
       23CA : C2 20 1C                   st      AX, [DX]
       23CD : C2 21 1C                   st      AX, [DX]+
       23D0 : C3 20 56 1C                st      AX, 56H[DX]
       23D4 : C3 21 9A 78 1C             st      AX, 789AH[DX]
       23D9 :
       23D9 : C4 24 1D                   stb     AH, CL
       23DC : C6 20 1D                   stb     AH, [DX]
       23DF : C6 21 1D                   stb     AH, [DX]+
       23E2 : C7 20 56 1D                stb     AH, 56H[DX]
       23E6 : C7 21 9A 78 1D             stb     AH, 789AH[DX]
       23EB :
       23EB : C8 20                      push    DX
       23ED : C9 34 12                   push    #1234H
       23F0 : CA 20                      push    [DX]
       23F2 : CA 21                      push    [DX]+
       23F4 : CB 20 56                   push    56H[DX]
       23F7 : CB 21 9A 78                push    789AH[DX]
       23FB :
       23FB : CC 24                      pop     CX
       23FD : CE 20                      pop     [DX]
       23FF : CE 21                      pop     [DX]+
       2401 : CF 20 56                   pop     56H[DX]
       2404 : CF 21 9A 78                pop     789AH[DX]
       2408 :
       2408 : F8                         clrc
       2409 : DB 11                      jc      jcc_a
       240B : FD                         nop
       240C : FD                         nop
       240D : FD                         nop
       240E : FD                         nop
       240F : FD                         nop
       2410 : D3 05                      jnc     jcc_b
       2412 : FD                         nop
       2413 : FD                         nop
       2414 : FD                         nop
       2415 : FD                         nop
       2416 : FD                         nop
       2417 :                    jcc_b:
       2417 : FD                         nop
       2418 : FD                         nop
       2419 : FD                         nop
       241A : FD                         nop
       241B : FD                         nop
       241C :                    jcc_a:
       241C :
       241C : B1 02 1D                   ldb     AH, #2
       241F :                    djnz_a:
       241F : E0 1D FD                   djnz    AH, djnz_a
       2422 : FD                         nop
       2423 : FD                         nop
       2424 : FD                         nop
       2425 : FD                         nop
       2426 : FD                         nop
       2427 : A1 32 24 20                ld      DX, #br_a
       242B : E3 20                      br      [DX]
       242D : FD                         nop
       242E : FD                         nop
       242F : FD                         nop
       2430 : FD                         nop
       2431 : FD                         nop
       2432 :                    br_a:
       2432 :
       2432 : E7 06 00                   ljmp    ljmp_a
       2435 : FD                         nop
       2436 : FD                         nop
       2437 : FD                         nop
       2438 : FD                         nop
       2439 : FD                         nop
       243A : FD                         nop
       243B :                    ljmp_a:
       243B :
       243B : EF 09 00                   lcall   lcall_b
       243E : E7 07 00                   ljmp    lcall_a
       2441 : FD                         nop
       2442 : FD                         nop
       2443 : FD                         nop
       2444 : FD                         nop
       2445 : FD                         nop
       2446 : FD                         nop
       2447 :                    lcall_b:
       2447 : F0                         ret
       2448 :                    lcall_a:
       2448 :
       2448 : F2                         pushf
       2449 : F3                         popf
       244A : F8                         clrc
       244B : F9                         setc
       244C : FA                         di
       244D : FB                         ei
       244E : FC                         clrvt
       244F : A1 E3 20 1C                ld      AX, #20E3H      ; br [DX]
       2453 : C3 01 80 20 1C             st      AX, ORG_RESET
       2458 : A1 5D 24 20                ld      DX, #rst_a
       245C : FF                         rst
       245D :                    rst_a:
       245D :
       245D : A1 6D 24 1C                ld      AX, #trap_a
       2461 : C3 01 10 20 1C             st      AX, VEC_TRAP
       2466 : F7                         trap
       2467 : FD                         nop
       2468 : FD                         nop
       2469 : FD                         nop
       246A : FD                         nop
       246B : FD                         nop
       246C : FD                         nop
       246D :                    trap_a:
       246D :
       246D : FE 4C 20 24 1C             mul     EAX, CX, DX
       2472 : FE 4D 34 12 24 1C          mul     EAX, CX, #1234H
       2478 : FE 4E 20 24 1C             mul     EAX, CX, [DX]
       247D : FE 4E 21 24 1C             mul     EAX, CX, [DX]+
       2482 : FE 4F 20 56 24 1C          mul     EAX, CX, 56H[DX]
       2488 : FE 4F 21 9A 78 24          mul     EAX, CX, 789AH[DX]
       248E : 1C
       248F :
       248F : FE 5C 20 24 1C             mulb    AX, CL, DL
       2494 : FE 5D 34 24 1C             mulb    AX, CL, #34H
       2499 : FE 5E 20 24 1C             mulb    AX, CL, [DX]
       249E : FE 5E 21 24 1C             mulb    AX, CL, [DX]+
       24A3 : FE 5F 20 56 24 1C          mulb    AX, CL, 56H[DX]
       24A9 : FE 5F 21 9A 78 24          mulb    AX, CL, 789AH[DX]
       24AF : 1C
       24B0 :
       24B0 : FE 6C 20 1C                mul     EAX, DX
       24B4 : FE 6D 34 12 1C             mul     EAX, #1234H
       24B9 : FE 6E 20 1C                mul     EAX, [DX]
       24BD : FE 6E 21 1C                mul     EAX, [DX]+
       24C1 : FE 6F 20 56 1C             mul     EAX, 56H[DX]
       24C6 : FE 6F 21 9A 78 1C          mul     EAX, 789AH[DX]
       24CC :
       24CC : FE 7C 20 1C                mulb    AX, DL
       24D0 : FE 7D 34 1C                mulb    AX, #34H
       24D4 : FE 7E 20 1C                mulb    AX, [DX]
       24D8 : FE 7E 21 1C                mulb    AX, [DX]+
       24DC : FE 7F 20 56 1C             mulb    AX, 56H[DX]
       24E1 : FE 7F 21 9A 78 1C          mulb    AX, 789AH[DX]
       24E7 :
       24E7 : FE 8C 20 1C                div     EAX, DX
       24EB : FE 8D 34 12 1C             div     EAX, #1234H
       24F0 : FE 8E 20 1C                div     EAX, [DX]
       24F4 : FE 8E 21 1C                div     EAX, [DX]+
       24F8 : FE 8F 20 56 1C             div     EAX, 56H[DX]
       24FD : FE 8F 21 9A 78 1C          div     EAX, 789AH[DX]
       2503 :
       2503 : FE 9C 20 1C                divb    AX, DL
       2507 : FE 9D 34 1C                divb    AX, #34H
       250B : FE 9E 20 1C                divb    AX, [DX]
       250F : FE 9E 21 1C                divb    AX, [DX]+
       2513 : FE 9F 20 56 1C             divb    AX, 56H[DX]
       2518 : FE 9F 21 9A 78 1C          divb    AX, 789AH[DX]
       251E :
       251E : FD                         nop
       251F : FD                         nop
       2520 : A1 FD FD 1C                ld      AX, #0FDFDH     ; nop
       2524 : C3 01 80 20 1C             st      AX, ORG_RESET
       2529 : FD                         nop
       252A : FD                         nop
       252B : A1 10 20 1C                ld      AX, #VEC_TRAP
       252F : C3 01 10 20 1C             st      AX, VEC_TRAP
       2534 : F7                         trap
       2535 : FD                         nop
       2536 : FD                         nop
       2537 : FD                         nop
       2538 : FD                         nop
